Version 4
SHEET 1 1300 680
WIRE 64 96 -64 96
WIRE 192 96 144 96
WIRE 224 96 192 96
WIRE 528 96 496 96
WIRE 640 96 624 96
WIRE 656 96 640 96
WIRE 784 96 736 96
WIRE 992 96 960 96
WIRE 1104 96 1088 96
WIRE 1120 96 1104 96
WIRE 1248 96 1200 96
WIRE 640 144 640 96
WIRE 1104 144 1104 96
WIRE 192 160 192 96
WIRE 496 160 496 96
WIRE 784 160 784 96
WIRE 960 160 960 96
WIRE 1248 160 1248 96
WIRE 192 288 192 240
WIRE 192 288 -64 288
WIRE 192 304 192 288
WIRE 496 304 496 240
WIRE 640 304 640 240
WIRE 640 304 496 304
WIRE 784 304 784 240
WIRE 784 304 640 304
WIRE 960 304 960 240
WIRE 1104 304 1104 240
WIRE 1104 304 960 304
WIRE 1248 304 1248 240
WIRE 1248 304 1104 304
FLAG 192 304 0
FLAG -64 96 +3V_SQR
IOPIN -64 96 In
FLAG -64 288 GND
IOPIN -64 288 In
FLAG 224 96 VL
IOPIN 224 96 Out
SYMBOL Misc\\battery 960 144 R0
SYMATTR InstName V1
SYMBOL res 1216 80 R90
WINDOW 0 0 56 VBottom 2
WINDOW 3 32 56 VTop 2
SYMATTR InstName R1
SYMBOL Misc\\battery 496 144 R0
SYMATTR InstName V1
SYMBOL res 752 80 R90
WINDOW 0 0 56 VBottom 2
WINDOW 3 32 56 VTop 2
SYMATTR InstName R1
SYMBOL SPST 1040 80 R0
WINDOW 0 -16 -16 Left 2
SYMATTR InstName S1
SYMBOL SPST\ -\ Closed 1120 192 R90
WINDOW 0 -16 -16 Left 2
SYMATTR InstName S2
SYMBOL SPST\ -\ Closed 576 80 R0
WINDOW 0 -16 -16 Left 2
SYMATTR InstName S1
SYMBOL SPST 624 192 R270
WINDOW 0 -16 -16 Left 2
SYMATTR InstName S2
SYMBOL ind 1232 144 R0
SYMATTR InstName L1
SYMBOL ind 768 144 R0
SYMATTR InstName L1
SYMBOL res 160 80 R90
WINDOW 0 0 56 VBottom 2
WINDOW 3 62 56 VBottom 2
SYMATTR InstName R1
SYMATTR Value 100
SYMBOL ind 176 144 R0
SYMATTR InstName L1
SYMATTR Value ""
TEXT 864 192 Left 2 ;=>
TEXT 1200 192 VCenter 1 ;I
TEXT 736 192 VCenter 1 ;I
LINE Normal 1216 240 1216 144
LINE Normal 1210 228 1216 240
LINE Normal 1216 240 1210 228
LINE Normal 1222 228 1216 240
LINE Normal 752 240 752 144
LINE Normal 746 228 752 240
LINE Normal 752 240 746 228
LINE Normal 758 228 752 240
