Version 4
SHEET 1 1072 752
WIRE 640 144 144 144
WIRE 720 144 640 144
WIRE 640 224 640 208
WIRE 688 224 640 224
WIRE 720 224 688 224
WIRE 688 304 688 224
WIRE 736 304 688 304
WIRE 688 368 688 304
WIRE 688 368 624 368
WIRE 448 416 384 416
WIRE 560 416 528 416
WIRE 576 416 560 416
WIRE 144 432 144 144
WIRE 384 496 384 416
WIRE 144 640 144 512
WIRE 384 640 384 576
WIRE 384 640 144 640
WIRE 624 640 624 464
WIRE 624 640 384 640
WIRE 384 672 384 640
FLAG 384 672 0
FLAG 736 304 vlc
IOPIN 736 304 Out
SYMBOL voltage 384 480 R0
SYMATTR InstName V1
SYMATTR Value PULSE(0 1.5 0 1u 1u .888m 1.78m)
SYMATTR SpiceLine Rser=0
SYMBOL res 544 400 R90
WINDOW 0 0 56 VBottom 2
WINDOW 3 32 56 VTop 2
SYMATTR InstName R1
SYMATTR Value 680
SYMBOL Misc/battery 144 416 R0
SYMATTR InstName V2
SYMATTR Value 5v
SYMBOL npn 560 368 R0
SYMATTR InstName Q1
SYMATTR Value 2N2222
SYMBOL ind 704 128 R0
SYMATTR InstName L1
SYMATTR Value 100µ
SYMBOL cap 624 144 R0
SYMATTR InstName C1
SYMATTR Value 10µ
TEXT 456 736 Left 2 !.tran 0 6.22m 5.34m 1us startup
