Version 4
SHEET 1 936 680
WIRE 144 -48 -144 -48
WIRE 320 -48 144 -48
WIRE 144 0 144 -48
WIRE 320 80 320 -48
WIRE -144 96 -144 -48
WIRE 144 128 144 80
WIRE 144 128 96 128
WIRE 256 128 144 128
WIRE 144 176 144 128
WIRE 320 208 320 176
WIRE 320 304 320 288
WIRE 400 304 320 304
WIRE 320 336 320 304
WIRE -144 448 -144 176
WIRE 144 448 144 256
WIRE 144 448 -144 448
WIRE 320 448 320 400
WIRE 320 448 144 448
WIRE -144 480 -144 448
FLAG -144 480 0
FLAG 400 304 VLED
IOPIN 400 304 Out
FLAG 96 128 Vb
IOPIN 96 128 In
SYMBOL res 128 -16 R0
SYMATTR InstName R1
SYMATTR Value 12.1K
SYMATTR SpiceLine tol=1 pwr=0.1
SYMBOL res 128 160 R0
SYMATTR InstName R2
SYMATTR Value {Rp}
SYMATTR SpiceLine tol=1 pwr=0.1
SYMBOL res 304 192 R0
SYMATTR InstName R3
SYMATTR Value 162
SYMATTR SpiceLine tol=1 pwr=0.1
SYMBOL npn 256 80 R0
SYMATTR InstName Q1
SYMATTR Value 2N2222
SYMBOL LED 304 336 R0
WINDOW 3 27 80 Left 2
SYMATTR InstName D1
SYMATTR Value WP710A10QBC-2
SYMBOL Misc\\battery -144 80 R0
WINDOW 123 0 0 Left 0
SYMATTR SpiceLine Rser=10
SYMATTR InstName V1
SYMATTR Value 9V
TEXT -168 520 Left 2 !.tran 0 1ms 0 1us startup
TEXT 144 520 Left 2 !.step param Rp 5K 50K 5K
TEXT 472 520 Left 1 !.lib WP710A10QBC.SP3
