Version 4
SHEET 1 936 680
SYMBOL Misc\\battery -144 80 R0
WINDOW 123 0 0 Left 0
SYMATTR InstName V1
SYMATTR Value ""
