Version 4
SHEET 1 936 680
WIRE 32 16 -144 16
WIRE 304 16 32 16
WIRE 304 64 304 16
WIRE -144 96 -144 16
WIRE 32 112 32 96
WIRE 32 112 -16 112
WIRE 240 112 32 112
WIRE 304 176 304 160
WIRE 304 272 304 256
WIRE 432 272 304 272
WIRE -144 336 -144 176
WIRE 32 336 32 192
WIRE 32 336 -144 336
WIRE 304 336 32 336
WIRE 32 352 32 336
FLAG 32 352 0
FLAG -16 112 Vb
IOPIN -16 112 In
FLAG 432 272 VLED
IOPIN 432 272 Out
SYMBOL battery -144 80 R0
WINDOW 123 0 0 Left 2
WINDOW 3 24 38 Left 2
SYMATTR Value 9
SYMATTR InstName V1
SYMATTR SpiceLine Rser=0
SYMBOL res 16 0 R0
WINDOW 0 35 41 Left 2
SYMATTR InstName R1
SYMATTR Value 12.1K
SYMBOL res 16 96 R0
SYMATTR InstName R2
SYMATTR Value {Rp}
SYMBOL res 288 160 R0
SYMATTR InstName R3
SYMATTR Value 162
SYMBOL npn 240 64 R0
SYMATTR InstName Q1
SYMATTR Value 2N2222
SYMBOL LED 288 272 R0
SYMATTR InstName D1
SYMATTR Value WP710A10QBC-2
TEXT -88 384 Left 2 !.lib LTSpice/WP710A10QBC.SP3
TEXT -16 448 Left 2 !.tran 0 1ms 1us startup
TEXT 24 528 Left 2 !.step param Rp 5k 20k 5k
