Version 4
SHEET 1 1456 680
WIRE 0 -32 -224 -32
WIRE 320 -32 0 -32
WIRE 512 -32 320 -32
WIRE 720 -32 512 -32
WIRE 512 0 512 -32
WIRE 0 32 0 -32
WIRE 320 48 320 -32
WIRE 720 48 720 -32
WIRE 512 96 512 80
WIRE 656 96 512 96
WIRE 880 96 832 96
WIRE 512 112 512 96
WIRE 1184 128 976 128
WIRE 1232 128 1184 128
WIRE -224 144 -224 -32
WIRE 832 144 832 96
WIRE 832 144 720 144
WIRE 0 160 0 112
WIRE 0 160 -48 160
WIRE 192 160 0 160
WIRE 320 160 320 128
WIRE 320 160 256 160
WIRE 368 160 320 160
WIRE 448 160 368 160
WIRE 832 176 832 144
WIRE 976 176 976 128
WIRE 1184 176 1184 128
WIRE 0 192 0 160
WIRE 320 192 320 160
WIRE 512 240 512 208
WIRE 976 304 976 256
WIRE 1088 304 976 304
WIRE 1184 304 1184 256
WIRE 1184 304 1088 304
WIRE 1088 336 1088 304
WIRE -224 352 -224 224
WIRE 0 352 0 272
WIRE 0 352 -224 352
WIRE 320 352 320 272
WIRE 320 352 0 352
WIRE 512 352 512 320
WIRE 512 352 320 352
WIRE 832 352 832 256
WIRE 832 352 512 352
WIRE -224 384 -224 352
FLAG -224 384 0
FLAG 880 96 L1
IOPIN 880 96 Out
FLAG -48 160 In
IOPIN -48 160 In
FLAG 368 160 B
FLAG 1088 336 0
FLAG 1232 128 Out
IOPIN 1232 128 Out
SYMBOL voltage 0 176 R0
WINDOW 0 11 104 Left 2
WINDOW 3 24 96 Invisible 2
WINDOW 39 0 0 Left 0
SYMATTR InstName Microphone
SYMATTR Value SINE(1.5 0.1 1000)
SYMATTR Value2 AC 0.1
SYMBOL cap 256 144 R90
WINDOW 0 0 32 VBottom 2
WINDOW 3 32 32 VTop 2
SYMATTR InstName C1
SYMATTR Value 2.5µ
SYMATTR SpiceLine V=50 Irms=0 Rser=0 Lser=0
SYMBOL res 304 32 R0
SYMATTR InstName R1
SYMATTR Value 4K
SYMBOL res 304 176 R0
SYMATTR InstName R2
SYMATTR Value 1K
SYMBOL Misc\\battery -224 128 R0
WINDOW 123 0 0 Left 0
WINDOW 39 0 0 Left 0
SYMATTR InstName V2
SYMATTR Value 5V
SYMBOL npn 448 112 R0
SYMATTR InstName Q1
SYMATTR Value 2N2222
SYMBOL res 496 -16 R0
SYMATTR InstName R3
SYMATTR Value 100
SYMBOL res 496 224 R0
SYMATTR InstName R4
SYMATTR Value 10
SYMBOL res -16 16 R0
SYMATTR InstName R5
SYMATTR Value 2.2K
SYMBOL ind2 816 160 R0
SYMATTR InstName L1
SYMATTR Value 30m
SYMATTR Type ind
SYMATTR SpiceLine Ipk=0.5 Rser=.08 Rpar=0 Cpar=0
SYMBOL ind2 992 160 M0
SYMATTR InstName L2
SYMATTR Value 30m
SYMATTR Type ind
SYMATTR SpiceLine Ipk=0.5 Rser=.08 Rpar=0 Cpar=0
SYMBOL res 1168 160 R0
SYMATTR InstName R6
SYMATTR Value 8
SYMBOL npn 656 48 R0
SYMATTR InstName Q2
SYMATTR Value 2N2222
TEXT -72 400 Left 2 !.tran 0 10m 0 10u\n;.ac dec 10 10 10000
TEXT 1008 216 Left 2 !K1 L2 L1 1
